Circuit: * C:\Users\Dana\Documents\LTspiceXVII\Draft1.asc


Date: Mon Oct 16 11:35:42 2017
Total elapsed time: 0.127 seconds.

tnom = 27
temp = 27
method = trap
totiter = 129
traniter = 0
tranpoints = 0
accept = 0
rejected = 0
matrix size = 16
fillins = 0
solver = Normal
Matrix Compiler1: 806 bytes object code size  0.4/0.1/[0.1]
Matrix Compiler2: 1.15 KB object code size  0.1/0.2/[0.1]

